data_image0
_chemical_formula_structural       C24
_chemical_formula_sum              "C24"
_cell_length_a       10.6973
_cell_length_b       10.6973
_cell_length_c       4.26
_cell_angle_alpha    90
_cell_angle_beta     90
_cell_angle_gamma    90

_space_group_name_H-M_alt    "P 1"
_space_group_IT_number       1

loop_
  _space_group_symop_operation_xyz
  'x, y, z'

loop_
  _atom_site_type_symbol
  _atom_site_label
  _atom_site_symmetry_multiplicity
  _atom_site_fract_x
  _atom_site_fract_y
  _atom_site_fract_z
  _atom_site_occupancy
  C   C1        1.0  0.71956  0.50000  0.00000  1.0000
  C   C2        1.0  0.69014  0.60978  0.83333  1.0000
  C   C3        1.0  0.69014  0.60978  0.50000  1.0000
  C   C4        1.0  0.60978  0.69014  0.33333  1.0000
  C   C5        1.0  0.60978  0.69014  0.00000  1.0000
  C   C6        1.0  0.50000  0.71956  0.83333  1.0000
  C   C7        1.0  0.50000  0.71956  0.50000  1.0000
  C   C8        1.0  0.39022  0.69014  0.33333  1.0000
  C   C9        1.0  0.39022  0.69014  0.00000  1.0000
  C   C10       1.0  0.30986  0.60978  0.83333  1.0000
  C   C11       1.0  0.30986  0.60978  0.50000  1.0000
  C   C12       1.0  0.28044  0.50000  0.33333  1.0000
  C   C13       1.0  0.28044  0.50000  0.00000  1.0000
  C   C14       1.0  0.30986  0.39022  0.83333  1.0000
  C   C15       1.0  0.30986  0.39022  0.50000  1.0000
  C   C16       1.0  0.39022  0.30986  0.33333  1.0000
  C   C17       1.0  0.39022  0.30986  0.00000  1.0000
  C   C18       1.0  0.50000  0.28044  0.83333  1.0000
  C   C19       1.0  0.50000  0.28044  0.50000  1.0000
  C   C20       1.0  0.60978  0.30986  0.33333  1.0000
  C   C21       1.0  0.60978  0.30986  0.00000  1.0000
  C   C22       1.0  0.69014  0.39022  0.83333  1.0000
  C   C23       1.0  0.69014  0.39022  0.50000  1.0000
  C   C24       1.0  0.71956  0.50000  0.33333  1.0000
