data_image0
_chemical_formula_structural       C24
_chemical_formula_sum              "C24"
_cell_length_a       10.697322188993668
_cell_length_b       10.697322188993668
_cell_length_c       4.26
_cell_angle_alpha    90.0
_cell_angle_beta     90.0
_cell_angle_gamma    90.0

_space_group_name_H-M_alt    "P 1"
_space_group_IT_number       1

loop_
  _space_group_symop_operation_xyz
  'x, y, z'

loop_
  _atom_site_type_symbol
  _atom_site_label
  _atom_site_symmetry_multiplicity
  _atom_site_fract_x
  _atom_site_fract_y
  _atom_site_fract_z
  _atom_site_occupancy
  C   C1        1.0  0.719555983544493  0.5  0.08333333333333327  1.0000
  C   C2        1.0  0.6901410593024092  0.6097779917722465  0.9166666666666665  1.0000
  C   C3        1.0  0.6901410593024092  0.6097779917722465  0.5833333333333333  1.0000
  C   C4        1.0  0.6097779917722466  0.6901410593024092  0.4166666666666666  1.0000
  C   C5        1.0  0.6097779917722466  0.6901410593024092  0.08333333333333327  1.0000
  C   C6        1.0  0.5  0.719555983544493  0.9166666666666665  1.0000
  C   C7        1.0  0.5  0.719555983544493  0.5833333333333334  1.0000
  C   C8        1.0  0.39022200822775355  0.6901410593024092  0.4166666666666667  1.0000
  C   C9        1.0  0.39022200822775355  0.6901410593024092  0.08333333333333327  1.0000
  C   C10       1.0  0.3098589406975909  0.6097779917722467  0.9166666666666663  1.0000
  C   C11       1.0  0.3098589406975909  0.6097779917722467  0.583333333333333  1.0000
  C   C12       1.0  0.280444016455507  0.5000000000000001  0.4166666666666665  1.0000
  C   C13       1.0  0.280444016455507  0.5  0.08333333333333327  1.0000
  C   C14       1.0  0.3098589406975908  0.39022200822775355  0.9166666666666667  1.0000
  C   C15       1.0  0.3098589406975908  0.39022200822775355  0.583333333333333  1.0000
  C   C16       1.0  0.3902220082277534  0.3098589406975909  0.4166666666666665  1.0000
  C   C17       1.0  0.3902220082277534  0.3098589406975909  0.08333333333333327  1.0000
  C   C18       1.0  0.5  0.280444016455507  0.9166666666666667  1.0000
  C   C19       1.0  0.5  0.280444016455507  0.583333333333333  1.0000
  C   C20       1.0  0.6097779917722466  0.30985894069759085  0.4166666666666665  1.0000
  C   C21       1.0  0.6097779917722465  0.30985894069759073  0.08333333333333327  1.0000
  C   C22       1.0  0.6901410593024091  0.3902220082277534  0.9166666666666659  1.0000
  C   C23       1.0  0.6901410593024091  0.3902220082277534  0.583333333333333  1.0000
  C   C24       1.0  0.719555983544493  0.49999999999999994  0.4166666666666665  1.0000
