data_image0
_chemical_formula_structural       C196
_chemical_formula_sum              "C196"
_cell_length_a       11.480209220492613
_cell_length_b       11.477393577778283
_cell_length_c       29.819999999999997
_cell_angle_alpha    90.0
_cell_angle_beta     90.0
_cell_angle_gamma    90.0

_space_group_name_H-M_alt    "P 1"
_space_group_IT_number       1

loop_
  _space_group_symop_operation_xyz
  'x, y, z'

loop_
  _atom_site_type_symbol
  _atom_site_label
  _atom_site_symmetry_multiplicity
  _atom_site_fract_x
  _atom_site_fract_y
  _atom_site_fract_z
  _atom_site_occupancy
  C   C1        1.0  0.7386807206749434  0.49999999999999994  0.001700680272107816  1.0000
  C   C2        1.0  0.7079669762377284  0.617153552107695  0.008503401360543153  1.0000
  C   C3        1.0  0.7381903255358897  0.5152960778036358  0.46088435374149556  1.0000
  C   C4        1.0  0.7000354728646823  0.6302406062602451  0.46768707482993094  1.0000
  C   C5        1.0  0.7367211552575446  0.5305293007425781  0.9200680272108834  1.0000
  C   C6        1.0  0.6912819808261604  0.6427924738251495  0.926870748299319  1.0000
  C   C7        1.0  0.7342792469757174  0.5456370722362546  0.3792517006802712  1.0000
  C   C8        1.0  0.681742470098568  0.6547575764862168  0.38605442176870647  1.0000
  C   C9        1.0  0.7308746350153262  0.560557311210991  0.8384353741496592  1.0000
  C   C10       1.0  0.6714561405777029  0.6660867470701061  0.8452380952380946  1.0000
  C   C11       1.0  0.7265213096572032  0.5752287072044591  0.297619047619047  1.0000
  C   C12       1.0  0.6604652609979771  0.6767334315847888  0.3044217687074822  1.0000
  C   C13       1.0  0.7212371596490301  0.5895909723035168  0.7568027210884347  1.0000
  C   C14       1.0  0.6488149952411202  0.6866538805198876  0.7636054421768703  1.0000
  C   C15       1.0  0.7150438986966373  0.6035850888801761  0.21598639455782262  1.0000
  C   C16       1.0  0.6365532167481011  0.6958073286227983  0.22278911564625786  1.0000
  C   C17       1.0  0.7079669762377284  0.617153552107695  0.6751700680272105  1.0000
  C   C18       1.0  0.623730311796891  0.7041561624118575  0.6819727891156457  1.0000
  C   C19       1.0  0.7000354728646823  0.6302406062602451  0.13435374149659837  1.0000
  C   C20       1.0  0.6103989724544387  0.7116660747382069  0.14115646258503364  1.0000
  C   C21       1.0  0.6912819808261604  0.6427924738251495  0.5935374149659858  1.0000
  C   C22       1.0  0.5966139800536658  0.7183062057612265  0.600340136054421  1.0000
  C   C23       1.0  0.681742470098568  0.6547575764862168  0.05272108843537346  1.0000
  C   C24       1.0  0.5824319800852188  0.7240492697582388  0.05952380952380884  1.0000
  C   C25       1.0  0.6714561405777029  0.6660867470701061  0.511904761904762  1.0000
  C   C26       1.0  0.5679112494289973  0.7288716672473969  0.5187074829931974  1.0000
  C   C27       1.0  0.6604652609979771  0.6767334315847888  0.9710884353741502  1.0000
  C   C28       1.0  0.5531114568819546  0.7327535819630169  0.9778911564625855  1.0000
  C   C29       1.0  0.6488149952411202  0.6866538805198876  0.430272108843538  1.0000
  C   C30       1.0  0.5380934179662122  0.7356790622848638  0.4370748299319733  1.0000
  C   C31       1.0  0.6365532167481011  0.6958073286227983  0.8894557823129255  1.0000
  C   C32       1.0  0.5229188450250344  0.7376360867867823  0.8962585034013608  1.0000
  C   C33       1.0  0.623730311796891  0.7041561624118575  0.3486394557823131  1.0000
  C   C34       1.0  0.5076500936335716  0.7386166136353128  0.35544217687074847  1.0000
  C   C35       1.0  0.6103989724544387  0.7116660747382069  0.8078231292517015  1.0000
  C   C36       1.0  0.49234990636642856  0.7386166136353128  0.8146258503401368  1.0000
  C   C37       1.0  0.5966139800536658  0.7183062057612265  0.2670068027210884  1.0000
  C   C38       1.0  0.4770811549749658  0.7376360867867823  0.27380952380952367  1.0000
  C   C39       1.0  0.5824319800852188  0.7240492697582388  0.7261904761904748  1.0000
  C   C40       1.0  0.46190658203378787  0.735679062284864  0.7329931972789102  1.0000
  C   C41       1.0  0.5679112494289973  0.7288716672473969  0.1853741496598635  1.0000
  C   C42       1.0  0.44688854311804554  0.7327535819630169  0.1921768707482989  1.0000
  C   C43       1.0  0.5531114568819546  0.7327535819630169  0.6445578231292537  1.0000
  C   C44       1.0  0.4320887505710029  0.7288716672473969  0.6513605442176893  1.0000
  C   C45       1.0  0.5380934179662122  0.7356790622848638  0.1037414965986406  1.0000
  C   C46       1.0  0.4175680199147813  0.7240492697582388  0.110544217687076  1.0000
  C   C47       1.0  0.5229188450250344  0.7376360867867823  0.562925170068027  1.0000
  C   C48       1.0  0.4033860199463343  0.7183062057612265  0.5697278911564626  1.0000
  C   C49       1.0  0.5076500936335716  0.7386166136353128  0.022108843537415913  1.0000
  C   C50       1.0  0.38960102754556136  0.7116660747382071  0.028911564625851184  1.0000
  C   C51       1.0  0.49234990636642856  0.7386166136353128  0.4812925170068042  1.0000
  C   C52       1.0  0.3762696882031093  0.7041561624118575  0.4880952380952395  1.0000
  C   C53       1.0  0.4770811549749658  0.7376360867867823  0.9404761904761925  1.0000
  C   C54       1.0  0.36344678325189905  0.6958073286227983  0.9472789115646281  1.0000
  C   C55       1.0  0.46190658203378787  0.735679062284864  0.39965986394557945  1.0000
  C   C56       1.0  0.35118500475888  0.6866538805198876  0.4064625850340148  1.0000
  C   C57       1.0  0.44688854311804543  0.7327535819630169  0.8588435374149678  1.0000
  C   C58       1.0  0.339534739002023  0.6767334315847889  0.865646258503403  1.0000
  C   C59       1.0  0.4320887505710029  0.7288716672473969  0.3180272108843564  1.0000
  C   C60       1.0  0.32854385942229725  0.6660867470701061  0.3248299319727918  1.0000
  C   C61       1.0  0.4175680199147813  0.7240492697582388  0.7772108843537431  1.0000
  C   C62       1.0  0.31825752990143213  0.6547575764862168  0.7840136054421784  1.0000
  C   C63       1.0  0.4033860199463343  0.7183062057612265  0.23639455782312974  1.0000
  C   C64       1.0  0.3087180191738396  0.6427924738251496  0.24319727891156503  1.0000
  C   C65       1.0  0.38960102754556136  0.7116660747382071  0.6955782312925181  1.0000
  C   C66       1.0  0.29996452713531807  0.6302406062602451  0.7023809523809537  1.0000
  C   C67       1.0  0.37626968820310913  0.7041561624118575  0.15476190476190696  1.0000
  C   C68       1.0  0.29203302376227175  0.617153552107695  0.1615646258503422  1.0000
  C   C69       1.0  0.36344678325189905  0.6958073286227983  0.6139455782312953  1.0000
  C   C70       1.0  0.28495610130336285  0.6035850888801761  0.6207482993197305  1.0000
  C   C71       1.0  0.35118500475888  0.6866538805198876  0.07312925170068017  1.0000
  C   C72       1.0  0.27876284035097004  0.5895909723035169  0.07993197278911544  1.0000
  C   C73       1.0  0.339534739002023  0.6767334315847889  0.5323129251700686  1.0000
  C   C74       1.0  0.273478690342797  0.5752287072044592  0.5391156462585039  1.0000
  C   C75       1.0  0.32854385942229725  0.6660867470701061  0.9914965986394569  1.0000
  C   C76       1.0  0.2691253649846738  0.560557311210991  0.9982993197278922  1.0000
  C   C77       1.0  0.3182575299014322  0.6547575764862168  0.4506802721088418  1.0000
  C   C78       1.0  0.2657207530242827  0.5456370722362546  0.45748299319727714  1.0000
  C   C79       1.0  0.3087180191738396  0.6427924738251496  0.909863945578234  1.0000
  C   C80       1.0  0.26327884474245566  0.5305293007425781  0.9166666666666694  1.0000
  C   C81       1.0  0.29996452713531807  0.6302406062602451  0.3690476190476227  1.0000
  C   C82       1.0  0.2618096744641104  0.515296077803636  0.37585034013605795  1.0000
  C   C83       1.0  0.29203302376227175  0.617153552107695  0.828231292517011  1.0000
  C   C84       1.0  0.26131927932505666  0.49999999999999994  0.8350340136054466  1.0000
  C   C85       1.0  0.28495610130336285  0.6035850888801761  0.2874149659863998  1.0000
  C   C86       1.0  0.2618096744641104  0.48470392219636427  0.29421768707483514  1.0000
  C   C87       1.0  0.27876284035097004  0.5895909723035169  0.7465986394557844  1.0000
  C   C88       1.0  0.2632788447424556  0.4694706992574221  0.7534013605442197  1.0000
  C   C89       1.0  0.2734786903427969  0.5752287072044591  0.2057823129251731  1.0000
  C   C90       1.0  0.2657207530242827  0.4543629277637454  0.21258503401360834  1.0000
  C   C91       1.0  0.2691253649846739  0.5605573112109912  0.6649659863945615  1.0000
  C   C92       1.0  0.2691253649846738  0.43944268878900894  0.6717687074829969  1.0000
  C   C93       1.0  0.2657207530242827  0.5456370722362546  0.12414965986394631  1.0000
  C   C94       1.0  0.2734786903427969  0.42477129279554104  0.13095238095238168  1.0000
  C   C95       1.0  0.26327884474245566  0.5305293007425781  0.5833333333333349  1.0000
  C   C96       1.0  0.2787628403509699  0.4104090276964833  0.5901360544217702  1.0000
  C   C97       1.0  0.2618096744641104  0.5152960778036358  0.042517006802723495  1.0000
  C   C98       1.0  0.2849561013033628  0.3964149111198238  0.049319727891158766  1.0000
  C   C99       1.0  0.26131927932505666  0.49999999999999994  0.5017006802721119  1.0000
  C   C100      1.0  0.2920330237622717  0.3828464478923051  0.5085034013605473  1.0000
  C   C101      1.0  0.2618096744641104  0.48470392219636427  0.9608843537415002  1.0000
  C   C102      1.0  0.2999645271353179  0.36975939373975497  0.9676870748299354  1.0000
  C   C103      1.0  0.2632788447424556  0.46947069925742196  0.42006802721088515  1.0000
  C   C104      1.0  0.30871801917383956  0.35720752617485046  0.4268707482993204  1.0000
  C   C105      1.0  0.26572075302428266  0.4543629277637455  0.8792517006802772  1.0000
  C   C106      1.0  0.3182575299014321  0.3452424235137832  0.8860544217687126  1.0000
  C   C107      1.0  0.2691253649846738  0.43944268878900894  0.338435374149666  1.0000
  C   C108      1.0  0.32854385942229714  0.33391325292989393  0.3452380952381013  1.0000
  C   C109      1.0  0.2734786903427969  0.42477129279554104  0.7976190476190507  1.0000
  C   C110      1.0  0.3395347390020228  0.3232665684152112  0.8044217687074859  1.0000
  C   C111      1.0  0.27876284035096993  0.4104090276964832  0.2568027210884392  1.0000
  C   C112      1.0  0.3511850047588798  0.31334611948011243  0.2636054421768746  1.0000
  C   C113      1.0  0.2849561013033628  0.3964149111198238  0.7159863945578276  1.0000
  C   C114      1.0  0.36344678325189894  0.3041926713772018  0.7227891156462629  1.0000
  C   C115      1.0  0.2920330237622717  0.3828464478923051  0.1751700680272164  1.0000
  C   C116      1.0  0.376269688203109  0.29584383758814253  0.1819727891156517  1.0000
  C   C117      1.0  0.29996452713531796  0.36975939373975486  0.6343537414966047  1.0000
  C   C118      1.0  0.38960102754556136  0.288333925261793  0.6411564625850403  1.0000
  C   C119      1.0  0.30871801917383956  0.3572075261748505  0.09353741496598965  1.0000
  C   C120      1.0  0.4033860199463341  0.2816937942387735  0.10034013605442502  1.0000
  C   C121      1.0  0.3182575299014321  0.3452424235137832  0.5527210884353781  1.0000
  C   C122      1.0  0.41756801991478115  0.27595073024176114  0.5595238095238134  1.0000
  C   C123      1.0  0.32854385942229714  0.33391325292989393  0.011904761904766838  1.0000
  C   C124      1.0  0.4320887505710027  0.27112833275260306  0.01870748299320222  1.0000
  C   C125      1.0  0.3395347390020229  0.3232665684152111  0.4710884353741513  1.0000
  C   C126      1.0  0.44688854311804543  0.2672464180369831  0.4778911564625867  1.0000
  C   C127      1.0  0.3511850047588798  0.31334611948011243  0.9302721088435397  1.0000
  C   C128      1.0  0.46190658203378776  0.26432093771513604  0.9370748299319751  1.0000
  C   C129      1.0  0.36344678325189894  0.3041926713772018  0.3894557823129284  1.0000
  C   C130      1.0  0.4770811549749656  0.2623639132132178  0.39625850340136365  1.0000
  C   C131      1.0  0.376269688203109  0.29584383758814253  0.8486394557823131  1.0000
  C   C132      1.0  0.4923499063664282  0.26138338636468716  0.8554421768707484  1.0000
  C   C133      1.0  0.38960102754556136  0.288333925261793  0.3078231292517055  1.0000
  C   C134      1.0  0.5076500936335714  0.26138338636468716  0.31462585034014084  1.0000
  C   C135      1.0  0.4033860199463341  0.2816937942387735  0.7670068027210901  1.0000
  C   C136      1.0  0.5229188450250342  0.2623639132132177  0.7738095238095254  1.0000
  C   C137      1.0  0.41756801991478115  0.27595073024176114  0.22619047619048255  1.0000
  C   C138      1.0  0.5380934179662121  0.264320937715136  0.23299319727891796  1.0000
  C   C139      1.0  0.4320887505710027  0.27112833275260306  0.6853741496598672  1.0000
  C   C140      1.0  0.5531114568819544  0.26724641803698307  0.6921768707483026  1.0000
  C   C141      1.0  0.44688854311804543  0.2672464180369831  0.1445578231292521  1.0000
  C   C142      1.0  0.5679112494289971  0.27112833275260295  0.1513605442176875  1.0000
  C   C143      1.0  0.46190658203378776  0.26432093771513604  0.6037414965986444  1.0000
  C   C144      1.0  0.5824319800852187  0.27595073024176103  0.6105442176870798  1.0000
  C   C145      1.0  0.4770811549749656  0.2623639132132178  0.0629251700680292  1.0000
  C   C146      1.0  0.5966139800536657  0.2816937942387734  0.06972789115646458  1.0000
  C   C147      1.0  0.49234990636642856  0.26138338636468716  0.5221088435374138  1.0000
  C   C148      1.0  0.6103989724544386  0.2883339252617929  0.5289115646258492  1.0000
  C   C149      1.0  0.5076500936335714  0.26138338636468716  0.9812925170068061  1.0000
  C   C150      1.0  0.6237303117968909  0.2958438375881424  0.9880952380952411  1.0000
  C   C151      1.0  0.5229188450250342  0.2623639132132177  0.44047619047619085  1.0000
  C   C152      1.0  0.636553216748101  0.30419267137720163  0.4472789115646261  1.0000
  C   C153      1.0  0.5380934179662121  0.264320937715136  0.899659863945583  1.0000
  C   C154      1.0  0.6488149952411201  0.3133461194801122  0.9064625850340183  1.0000
  C   C155      1.0  0.5531114568819546  0.2672464180369831  0.3588435374149755  1.0000
  C   C156      1.0  0.6604652609979771  0.323266568415211  0.36564625850341087  1.0000
  C   C157      1.0  0.5679112494289971  0.27112833275260295  0.8180272108843601  1.0000
  C   C158      1.0  0.6714561405777026  0.33391325292989366  0.8248299319727955  1.0000
  C   C159      1.0  0.5824319800852187  0.27595073024176103  0.27721088435375274  1.0000
  C   C160      1.0  0.6817424700985679  0.345242423513783  0.28401360544218796  1.0000
  C   C161      1.0  0.5966139800536657  0.2816937942387734  0.7363945578231371  1.0000
  C   C162      1.0  0.6912819808261603  0.35720752617485013  0.7431972789115726  1.0000
  C   C163      1.0  0.6103989724544386  0.2883339252617929  0.1955782312925221  1.0000
  C   C164      1.0  0.700035472864682  0.3697593937397547  0.2023809523809574  1.0000
  C   C165      1.0  0.6237303117968909  0.2958438375881424  0.6547619047619143  1.0000
  C   C166      1.0  0.7079669762377282  0.3828464478923048  0.6615646258503496  1.0000
  C   C167      1.0  0.636553216748101  0.30419267137720163  0.11394557823129924  1.0000
  C   C168      1.0  0.7150438986966372  0.3964149111198236  0.1207482993197345  1.0000
  C   C169      1.0  0.6488149952411202  0.3133461194801124  0.5731292517006915  1.0000
  C   C170      1.0  0.7212371596490301  0.4104090276964831  0.5799319727891268  1.0000
  C   C171      1.0  0.6604652609979771  0.323266568415211  0.032312925170076424  1.0000
  C   C172      1.0  0.7265213096572032  0.42477129279554077  0.03911564625851169  1.0000
  C   C173      1.0  0.6714561405777026  0.33391325292989366  0.49149659863946077  1.0000
  C   C174      1.0  0.7308746350153261  0.4394426887890087  0.49829931972789615  1.0000
  C   C175      1.0  0.6817424700985679  0.345242423513783  0.9506802721088531  1.0000
  C   C176      1.0  0.7342792469757172  0.45436292776374504  0.9574829931972885  1.0000
  C   C177      1.0  0.6912819808261604  0.3572075261748504  0.40986394557823796  1.0000
  C   C178      1.0  0.7367211552575446  0.46947069925742174  0.41666666666667335  1.0000
  C   C179      1.0  0.700035472864682  0.3697593937397547  0.8690476190476224  1.0000
  C   C180      1.0  0.7381903255358897  0.484703922196364  0.875850340136058  1.0000
  C   C181      1.0  0.7079669762377282  0.3828464478923048  0.32823129251701505  1.0000
  C   C182      1.0  0.7386807206749434  0.4999999999999997  0.3350340136054503  1.0000
  C   C183      1.0  0.7150438986966373  0.39641491111982374  0.7874149659863996  1.0000
  C   C184      1.0  0.7381903255358897  0.5152960778036356  0.7942176870748351  1.0000
  C   C185      1.0  0.7212371596490301  0.4104090276964831  0.24659863945578447  1.0000
  C   C186      1.0  0.7367211552575446  0.5305293007425779  0.25340136054421974  1.0000
  C   C187      1.0  0.7265213096572032  0.42477129279554077  0.7057823129251768  1.0000
  C   C188      1.0  0.7342792469757174  0.5456370722362544  0.7125850340136121  1.0000
  C   C189      1.0  0.7308746350153261  0.4394426887890087  0.16496598639456167  1.0000
  C   C190      1.0  0.7308746350153265  0.5605573112109907  0.17176870748299697  1.0000
  C   C191      1.0  0.7342792469757174  0.45436292776374526  0.624149659863954  1.0000
  C   C192      1.0  0.7265213096572033  0.5752287072044588  0.6309523809523893  1.0000
  C   C193      1.0  0.7367211552575446  0.46947069925742174  0.08333333333333878  1.0000
  C   C194      1.0  0.7212371596490301  0.5895909723035165  0.09013605442177405  1.0000
  C   C195      1.0  0.7381903255358897  0.484703922196364  0.5425170068027233  1.0000
  C   C196      1.0  0.7150438986966374  0.6035850888801759  0.5493197278911586  1.0000
