data_image0
_chemical_formula_structural       B2N2B2N2B2N2B2N2
_chemical_formula_sum              "B8 N8"
_cell_length_a       4.314
_cell_length_b       2.4907
_cell_length_c       15.825
_cell_angle_alpha    90
_cell_angle_beta     90
_cell_angle_gamma    90

_space_group_name_H-M_alt    "P 1"
_space_group_IT_number       1

loop_
  _space_group_symop_operation_xyz
  'x, y, z'

loop_
  _atom_site_type_symbol
  _atom_site_label
  _atom_site_symmetry_multiplicity
  _atom_site_fract_x
  _atom_site_fract_y
  _atom_site_fract_z
  _atom_site_occupancy
  B   B1        1.0  0.83333  0.75000  0.39652  1.0000
  B   B2        1.0  0.33333  0.25000  0.39652  1.0000
  N   N1        1.0  0.66667  0.25000  0.39652  1.0000
  N   N2        1.0  0.16667  0.75000  0.39652  1.0000
  B   B3        1.0  0.66667  0.25000  0.60348  1.0000
  B   B4        1.0  0.16667  0.75000  0.60348  1.0000
  N   N3        1.0  0.83333  0.75000  0.60348  1.0000
  N   N4        1.0  0.33333  0.25000  0.60348  1.0000
  B   B5        1.0  0.83333  0.75000  0.81043  1.0000
  B   B6        1.0  0.33333  0.25000  0.81043  1.0000
  N   N5        1.0  0.66667  0.25000  0.81043  1.0000
  N   N6        1.0  0.16667  0.75000  0.81043  1.0000
  B   B7        1.0  0.66667  0.25000  0.18957  1.0000
  B   B8        1.0  0.16667  0.75000  0.18957  1.0000
  N   N7        1.0  0.83333  0.75000  0.18957  1.0000
  N   N8        1.0  0.33333  0.25000  0.18957  1.0000
