data_image0
_chemical_formula_structural       Mg4O4Mg4O4
_chemical_formula_sum              "Mg8 O8"
_cell_length_a       4.212
_cell_length_b       4.212
_cell_length_c       8.424
_cell_angle_alpha    90.0
_cell_angle_beta     90.0
_cell_angle_gamma    90.0

_space_group_name_H-M_alt    "P 1"
_space_group_IT_number       1

loop_
  _space_group_symop_operation_xyz
  'x, y, z'

loop_
  _atom_site_type_symbol
  _atom_site_label
  _atom_site_symmetry_multiplicity
  _atom_site_fract_x
  _atom_site_fract_y
  _atom_site_fract_z
  _atom_site_occupancy
  Mg  Mg1       1.0  0.0  0.0  0.0  1.0000
  Mg  Mg2       1.0  0.0  0.4999999999999999  0.25  1.0000
  Mg  Mg3       1.0  0.4999999999999999  0.0  0.25  1.0000
  Mg  Mg4       1.0  0.4999999999999999  0.4999999999999999  0.0  1.0000
  O   O1        1.0  0.4999999999999999  0.4999999999999999  0.25  1.0000
  O   O2        1.0  0.4999999999999999  0.0  0.0  1.0000
  O   O3        1.0  0.0  0.4999999999999999  0.0  1.0000
  O   O4        1.0  0.0  0.0  0.25  1.0000
  Mg  Mg5       1.0  0.0  0.0  0.4999999999999999  1.0000
  Mg  Mg6       1.0  0.0  0.4999999999999999  0.75  1.0000
  Mg  Mg7       1.0  0.4999999999999999  0.0  0.75  1.0000
  Mg  Mg8       1.0  0.4999999999999999  0.4999999999999999  0.4999999999999999  1.0000
  O   O5        1.0  0.4999999999999999  0.4999999999999999  0.75  1.0000
  O   O6        1.0  0.4999999999999999  0.0  0.4999999999999999  1.0000
  O   O7        1.0  0.0  0.4999999999999999  0.4999999999999999  1.0000
  O   O8        1.0  0.0  0.0  0.75  1.0000
