data_image0
_chemical_formula_structural       Si8
_chemical_formula_sum              "Si8"
_cell_length_a       5.43
_cell_length_b       5.43
_cell_length_c       5.43
_cell_angle_alpha    90.0
_cell_angle_beta     90.0
_cell_angle_gamma    90.0

_space_group_name_H-M_alt    "P 1"
_space_group_IT_number       1

loop_
  _space_group_symop_operation_xyz
  'x, y, z'

loop_
  _atom_site_type_symbol
  _atom_site_label
  _atom_site_symmetry_multiplicity
  _atom_site_fract_x
  _atom_site_fract_y
  _atom_site_fract_z
  _atom_site_occupancy
  Si  Si1       1.0  0.0  0.0  0.0  1.0000
  Si  Si2       1.0  0.25  0.25  0.25  1.0000
  Si  Si3       1.0  0.0  0.4999999999999999  0.4999999999999999  1.0000
  Si  Si4       1.0  0.25  0.75  0.75  1.0000
  Si  Si5       1.0  0.4999999999999999  0.0  0.4999999999999999  1.0000
  Si  Si6       1.0  0.75  0.25  0.75  1.0000
  Si  Si7       1.0  0.4999999999999999  0.4999999999999999  0.0  1.0000
  Si  Si8       1.0  0.75  0.75  0.25  1.0000
