data_image0
_chemical_formula_structural       Si24
_chemical_formula_sum              "Si24"
_cell_length_a       13.409860354468885
_cell_length_b       13.409860354468885
_cell_length_c       6.719999999999999
_cell_angle_alpha    90.0
_cell_angle_beta     90.0
_cell_angle_gamma    90.0

_space_group_name_H-M_alt    "P 1"
_space_group_IT_number       1

loop_
  _space_group_symop_operation_xyz
  'x, y, z'

loop_
  _atom_site_type_symbol
  _atom_site_label
  _atom_site_symmetry_multiplicity
  _atom_site_fract_x
  _atom_site_fract_y
  _atom_site_fract_z
  _atom_site_occupancy
  Si  Si1       1.0  0.7762840237929667  0.5  0.08333333333333269  1.0000
  Si  Si2       1.0  0.7392689832644934  0.6381420118964833  0.9166666666666661  1.0000
  Si  Si3       1.0  0.7392689832644935  0.6381420118964833  0.5833333333333328  1.0000
  Si  Si4       1.0  0.6381420118964833  0.7392689832644935  0.41666666666666613  1.0000
  Si  Si5       1.0  0.6381420118964835  0.7392689832644934  0.08333333333333293  1.0000
  Si  Si6       1.0  0.5  0.7762840237929667  0.9166666666666663  1.0000
  Si  Si7       1.0  0.5  0.7762840237929667  0.5833333333333329  1.0000
  Si  Si8       1.0  0.3618579881035166  0.7392689832644934  0.41666666666666624  1.0000
  Si  Si9       1.0  0.3618579881035167  0.7392689832644935  0.08333333333333316  1.0000
  Si  Si10      1.0  0.26073101673550664  0.6381420118964835  0.9166666666666663  1.0000
  Si  Si11      1.0  0.26073101673550664  0.6381420118964835  0.5833333333333335  1.0000
  Si  Si12      1.0  0.22371597620703332  0.5  0.4166666666666668  1.0000
  Si  Si13      1.0  0.22371597620703332  0.5  0.08333333333333316  1.0000
  Si  Si14      1.0  0.2607310167355066  0.3618579881035166  0.9166666666666663  1.0000
  Si  Si15      1.0  0.2607310167355065  0.3618579881035167  0.5833333333333335  1.0000
  Si  Si16      1.0  0.3618579881035166  0.26073101673550664  0.4166666666666668  1.0000
  Si  Si17      1.0  0.3618579881035166  0.26073101673550664  0.0833333333333336  1.0000
  Si  Si18      1.0  0.4999999999999999  0.22371597620703332  0.9166666666666674  1.0000
  Si  Si19      1.0  0.4999999999999999  0.22371597620703332  0.5833333333333335  1.0000
  Si  Si20      1.0  0.6381420118964835  0.2607310167355066  0.4166666666666668  1.0000
  Si  Si21      1.0  0.6381420118964832  0.26073101673550647  0.08333333333333452  1.0000
  Si  Si22      1.0  0.7392689832644934  0.3618579881035166  0.9166666666666674  1.0000
  Si  Si23      1.0  0.7392689832644934  0.3618579881035166  0.5833333333333343  1.0000
  Si  Si24      1.0  0.7762840237929667  0.4999999999999999  0.4166666666666676  1.0000
