data_image0
_chemical_formula_structural       SrTiO3SrTiO3SrTiO3SrTiO3
_chemical_formula_sum              "Sr4 Ti4 O12"
_cell_length_a       7.81056
_cell_length_b       7.81056
_cell_length_c       3.90528
_cell_angle_alpha    90.0
_cell_angle_beta     90.0
_cell_angle_gamma    90.0

_space_group_name_H-M_alt    "P 1"
_space_group_IT_number       1

loop_
  _space_group_symop_operation_xyz
  'x, y, z'

loop_
  _atom_site_type_symbol
  _atom_site_label
  _atom_site_symmetry_multiplicity
  _atom_site_fract_x
  _atom_site_fract_y
  _atom_site_fract_z
  _atom_site_occupancy
  Sr  Sr1       1.0  0.25  0.25  0.49999999999999994  1.0000
  Ti  Ti1       1.0  0.0  0.0  0.0  1.0000
  O   O1        1.0  0.25  0.0  0.0  1.0000
  O   O2        1.0  0.0  0.25  0.0  1.0000
  O   O3        1.0  0.0  0.0  0.49999999999999994  1.0000
  Sr  Sr2       1.0  0.25  0.75  0.49999999999999994  1.0000
  Ti  Ti2       1.0  0.0  0.49999999999999994  0.0  1.0000
  O   O4        1.0  0.25  0.49999999999999994  0.0  1.0000
  O   O5        1.0  0.0  0.75  0.0  1.0000
  O   O6        1.0  0.0  0.49999999999999994  0.49999999999999994  1.0000
  Sr  Sr3       1.0  0.75  0.25  0.49999999999999994  1.0000
  Ti  Ti3       1.0  0.49999999999999994  0.0  0.0  1.0000
  O   O7        1.0  0.75  0.0  0.0  1.0000
  O   O8        1.0  0.49999999999999994  0.25  0.0  1.0000
  O   O9        1.0  0.49999999999999994  0.0  0.49999999999999994  1.0000
  Sr  Sr4       1.0  0.75  0.75  0.49999999999999994  1.0000
  Ti  Ti4       1.0  0.49999999999999994  0.49999999999999994  0.0  1.0000
  O   O10       1.0  0.75  0.49999999999999994  0.0  1.0000
  O   O11       1.0  0.49999999999999994  0.75  0.0  1.0000
  O   O12       1.0  0.49999999999999994  0.49999999999999994  0.49999999999999994  1.0000
